18

Bi  -2.1901   -6.3900   4.5605
Bi  -4.6963   -3.8340   4.5605
Cu  -5.6570   -2.5560   2.0868
Cu  -5.6570   -5.1120   2.0868
Cu  -3.4434   -3.8340   2.0868
Cu  -3.4434   -6.3900   2.0868
Bi   2.2370   -6.3900   4.5605
Bi  -0.2692   -3.8340   4.5605
Cu  -1.2299   -2.5560   2.0868
Cu  -1.2299   -5.1120   2.0868
Cu   0.9837   -3.8340   2.0868
Cu   0.9837   -6.3900   2.0868
Bi   6.6641   -6.3900   4.5605
Bi   4.1579   -3.8340   4.5605
Cu   3.1972   -2.5560   2.0868
Cu   3.1972   -5.1120   2.0868
Cu   5.4108   -3.8340   2.0868
Cu   5.4108   -6.3900   2.0868
Bi  -2.1901   -1.2780   4.5605
Bi  -4.6963    1.2780   4.5605
Cu  -5.6570    2.5560   2.0868
Cu  -5.6570   -0.0000   2.0868
Cu  -3.4434    1.2780   2.0868
Cu  -3.4434   -1.2780   2.0868
Bi   2.2370   -1.2780   4.5605
Bi  -0.2692    1.2780   4.5605
Cu  -1.2299    2.5560   2.0868
Cu  -1.2299   -0.0000   2.0868
Cu   0.9837    1.2780   2.0868
Cu   0.9837   -1.2780   2.0868
Bi   6.6641   -1.2780   4.5605
Bi   4.1579    1.2780   4.5605
Cu   3.1972    2.5560   2.0868
Cu   3.1972   -0.0000   2.0868
Cu   5.4108    1.2780   2.0868
Cu   5.4108   -1.2780   2.0868
Bi  -2.1901    3.8340   4.5605
Bi  -4.6963    6.3900   4.5605
Cu  -5.6570    7.6680   2.0868
Cu  -5.6570    5.1120   2.0868
Cu  -3.4434    6.3900   2.0868
Cu  -3.4434    3.8340   2.0868
Bi   2.2370    3.8340   4.5605
Bi  -0.2692    6.3900   4.5605
Cu  -1.2299    7.6680   2.0868
Cu  -1.2299    5.1120   2.0868
Cu   0.9837    6.3900   2.0868
Cu   0.9837    3.8340   2.0868
Bi   6.6641    3.8340   4.5605
Bi   4.1579    6.3900   4.5605
Cu   3.1972    7.6680   2.0868
Cu   3.1972    5.1120   2.0868
Cu   5.4108    6.3900   2.0868
Cu   5.4108    3.8340   2.0868
Cu  -2.7054   -7.6680   0.0000
Cu  -4.9190   -6.3900   0.0000
Cu  -4.9190   -3.8340   0.0000
Cu  -2.7054   -5.1120   0.0000
Cu  -4.1811   -7.6680  -2.0870
Cu  -4.1811   -5.1120  -2.0870
Cu  -6.3947   -6.3900  -2.0870
Cu  -6.3947   -3.8340  -2.0870
Cu  -3.4433   -6.3900  -4.1740
Cu  -3.4433   -3.8340  -4.1740
Cu  -5.6568   -5.1120  -4.1740
Cu  -5.6568   -2.5560  -4.1740
Cu   1.7217   -7.6680   0.0000
Cu  -0.4919   -6.3900   0.0000
Cu  -0.4919   -3.8340   0.0000
Cu   1.7217   -5.1120   0.0000
Cu   0.2460   -7.6680  -2.0870
Cu   0.2460   -5.1120  -2.0870
Cu  -1.9676   -6.3900  -2.0870
Cu  -1.9676   -3.8340  -2.0870
Cu   0.9838   -6.3900  -4.1740
Cu   0.9838   -3.8340  -4.1740
Cu  -1.2297   -5.1120  -4.1740
Cu  -1.2297   -2.5560  -4.1740
Cu   6.1488   -7.6680   0.0000
Cu   3.9352   -6.3900   0.0000
Cu   3.9352   -3.8340   0.0000
Cu   6.1488   -5.1120   0.0000
Cu   4.6731   -7.6680  -2.0870
Cu   4.6731   -5.1120  -2.0870
Cu   2.4595   -6.3900  -2.0870
Cu   2.4595   -3.8340  -2.0870
Cu   5.4109   -6.3900  -4.1740
Cu   5.4109   -3.8340  -4.1740
Cu   3.1974   -5.1120  -4.1740
Cu   3.1974   -2.5560  -4.1740
Cu  -2.7054   -2.5560   0.0000
Cu  -4.9190   -1.2780   0.0000
Cu  -4.9190    1.2780   0.0000
Cu  -2.7054   -0.0000   0.0000
Cu  -4.1811   -2.5560  -2.0870
Cu  -4.1811   -0.0000  -2.0870
Cu  -6.3947   -1.2780  -2.0870
Cu  -6.3947    1.2780  -2.0870
Cu  -3.4433   -1.2780  -4.1740
Cu  -3.4433    1.2780  -4.1740
Cu  -5.6568   -0.0000  -4.1740
Cu  -5.6568    2.5560  -4.1740
Cu   1.7217   -2.5560   0.0000
Cu  -0.4919   -1.2780   0.0000
Cu  -0.4919    1.2780   0.0000
Cu   1.7217   -0.0000   0.0000
Cu   0.2460   -2.5560  -2.0870
Cu   0.2460   -0.0000  -2.0870
Cu  -1.9676   -1.2780  -2.0870
Cu  -1.9676    1.2780  -2.0870
Cu   0.9838   -1.2780  -4.1740
Cu   0.9838    1.2780  -4.1740
Cu  -1.2297   -0.0000  -4.1740
Cu  -1.2297    2.5560  -4.1740
Cu   6.1488   -2.5560   0.0000
Cu   3.9352   -1.2780   0.0000
Cu   3.9352    1.2780   0.0000
Cu   6.1488   -0.0000   0.0000
Cu   4.6731   -2.5560  -2.0870
Cu   4.6731   -0.0000  -2.0870
Cu   2.4595   -1.2780  -2.0870
Cu   2.4595    1.2780  -2.0870
Cu   5.4109   -1.2780  -4.1740
Cu   5.4109    1.2780  -4.1740
Cu   3.1974   -0.0000  -4.1740
Cu   3.1974    2.5560  -4.1740
Cu  -2.7054    2.5560   0.0000
Cu  -4.9190    3.8340   0.0000
Cu  -4.9190    6.3900   0.0000
Cu  -2.7054    5.1120   0.0000
Cu  -4.1811    2.5560  -2.0870
Cu  -4.1811    5.1120  -2.0870
Cu  -6.3947    3.8340  -2.0870
Cu  -6.3947    6.3900  -2.0870
Cu  -3.4433    3.8340  -4.1740
Cu  -3.4433    6.3900  -4.1740
Cu  -5.6568    5.1120  -4.1740
Cu  -5.6568    7.6680  -4.1740
Cu   1.7217    2.5560   0.0000
Cu  -0.4919    3.8340   0.0000
Cu  -0.4919    6.3900   0.0000
Cu   1.7217    5.1120   0.0000
Cu   0.2460    2.5560  -2.0870
Cu   0.2460    5.1120  -2.0870
Cu  -1.9676    3.8340  -2.0870
Cu  -1.9676    6.3900  -2.0870
Cu   0.9838    3.8340  -4.1740
Cu   0.9838    6.3900  -4.1740
Cu  -1.2297    5.1120  -4.1740
Cu  -1.2297    7.6680  -4.1740
Cu   6.1488    2.5560   0.0000
Cu   3.9352    3.8340   0.0000
Cu   3.9352    6.3900   0.0000
Cu   6.1488    5.1120   0.0000
Cu   4.6731    2.5560  -2.0870
Cu   4.6731    5.1120  -2.0870
Cu   2.4595    3.8340  -2.0870
Cu   2.4595    6.3900  -2.0870
Cu   5.4109    3.8340  -4.1740
Cu   5.4109    6.3900  -4.1740
Cu   3.1974    5.1120  -4.1740
Cu   3.1974    7.6680  -4.1740
