9

Ag -12.1062  -20.9686   0.0000
Ag  -9.6043  -19.5241   0.0000
Ag -12.1063  -18.0796   0.0000
Ag -11.2723  -19.5241  -2.3588
Ag  -8.7703  -20.9686  -2.3588
Ag -13.7742  -18.0796  -2.3588
Ag -10.4383  -20.9686  -4.7178
Ag -10.4383  -18.0796  -4.7178
Ag -12.9402  -19.5241  -4.7178
Ag  -7.1023  -20.9686   0.0000
Ag  -4.6004  -19.5241   0.0000
Ag  -7.1024  -18.0796   0.0000
Ag  -6.2684  -19.5241  -2.3588
Ag  -3.7664  -20.9686  -2.3588
Ag  -8.7703  -18.0796  -2.3588
Ag  -5.4344  -20.9686  -4.7178
Ag  -5.4344  -18.0796  -4.7178
Ag  -7.9363  -19.5241  -4.7178
Ag  -2.0984  -20.9686   0.0000
Ag   0.4035  -19.5241   0.0000
Ag  -2.0985  -18.0796   0.0000
Ag  -1.2645  -19.5241  -2.3588
Ag   1.2375  -20.9686  -2.3588
Ag  -3.7664  -18.0796  -2.3588
Ag  -0.4305  -20.9686  -4.7178
Ag  -0.4305  -18.0796  -4.7178
Ag  -2.9324  -19.5241  -4.7178
Ag   2.9055  -20.9686   0.0000
Ag   5.4074  -19.5241   0.0000
Ag   2.9054  -18.0796   0.0000
Ag   3.7394  -19.5241  -2.3588
Ag   6.2414  -20.9686  -2.3588
Ag   1.2375  -18.0796  -2.3588
Ag   4.5734  -20.9686  -4.7178
Ag   4.5734  -18.0796  -4.7178
Ag   2.0715  -19.5241  -4.7178
Ag   7.9094  -20.9686   0.0000
Ag  10.4113  -19.5241   0.0000
Ag   7.9093  -18.0796   0.0000
Ag   8.7433  -19.5241  -2.3588
Ag  11.2453  -20.9686  -2.3588
Ag   6.2414  -18.0796  -2.3588
Ag   9.5773  -20.9686  -4.7178
Ag   9.5773  -18.0796  -4.7178
Ag   7.0754  -19.5241  -4.7178
Ag  12.9133  -20.9686   0.0000
Ag  15.4152  -19.5241   0.0000
Ag  12.9132  -18.0796   0.0000
Ag  13.7472  -19.5241  -2.3588
Ag  16.2492  -20.9686  -2.3588
Ag  11.2453  -18.0796  -2.3588
Ag  14.5812  -20.9686  -4.7178
Ag  14.5812  -18.0796  -4.7178
Ag  12.0793  -19.5241  -4.7178
Ag  17.9172  -20.9686   0.0000
Ag  20.4191  -19.5241   0.0000
Ag  17.9171  -18.0796   0.0000
Ag  18.7511  -19.5241  -2.3588
Ag  21.2531  -20.9686  -2.3588
Ag  16.2492  -18.0796  -2.3588
Ag  19.5851  -20.9686  -4.7178
Ag  19.5851  -18.0796  -4.7178
Ag  17.0832  -19.5241  -4.7178
Ag  22.9211  -20.9686   0.0000
Ag  25.4230  -19.5241   0.0000
Ag  22.9210  -18.0796   0.0000
Ag  23.7550  -19.5241  -2.3588
Ag  26.2570  -20.9686  -2.3588
Ag  21.2531  -18.0796  -2.3588
Ag  24.5890  -20.9686  -4.7178
Ag  24.5890  -18.0796  -4.7178
Ag  22.0871  -19.5241  -4.7178
Ag  27.9250  -20.9686   0.0000
Ag  30.4269  -19.5241   0.0000
Ag  27.9249  -18.0796   0.0000
Ag  28.7589  -19.5241  -2.3588
Ag  31.2609  -20.9686  -2.3588
Ag  26.2570  -18.0796  -2.3588
Ag  29.5929  -20.9686  -4.7178
Ag  29.5929  -18.0796  -4.7178
Ag  27.0910  -19.5241  -4.7178
Ag  32.9289  -20.9686   0.0000
Ag  35.4308  -19.5241   0.0000
Ag  32.9288  -18.0796   0.0000
Ag  33.7628  -19.5241  -2.3588
Ag  36.2648  -20.9686  -2.3588
Ag  31.2609  -18.0796  -2.3588
Ag  34.5968  -20.9686  -4.7178
Ag  34.5968  -18.0796  -4.7178
Ag  32.0949  -19.5241  -4.7178
Ag -14.6082  -16.6351   0.0000
Ag -12.1062  -15.1906   0.0000
Ag -14.6082  -13.7461   0.0000
Ag -13.7742  -15.1906  -2.3588
Ag -11.2722  -16.6351  -2.3588
Ag -16.2762  -13.7461  -2.3588
Ag -12.9402  -16.6351  -4.7178
Ag -12.9402  -13.7461  -4.7178
Ag -15.4422  -15.1906  -4.7178
Ag  -9.6043  -16.6351   0.0000
Ag  -7.1023  -15.1906   0.0000
Ag  -9.6043  -13.7461   0.0000
Ag  -8.7703  -15.1906  -2.3588
Ag  -6.2683  -16.6351  -2.3588
Ag -11.2723  -13.7461  -2.3588
Ag  -7.9363  -16.6351  -4.7178
Ag  -7.9363  -13.7461  -4.7178
Ag -10.4383  -15.1906  -4.7178
Ag  -4.6004  -16.6351   0.0000
Ag  -2.0984  -15.1906   0.0000
Ag  -4.6004  -13.7461   0.0000
Ag  -3.7664  -15.1906  -2.3588
Ag  -1.2644  -16.6351  -2.3588
Ag  -6.2684  -13.7461  -2.3588
Ag  -2.9324  -16.6351  -4.7178
Ag  -2.9324  -13.7461  -4.7178
Ag  -5.4344  -15.1906  -4.7178
Ag   0.4035  -16.6351   0.0000
Ag   2.9055  -15.1906   0.0000
Ag   0.4035  -13.7461   0.0000
Ag   1.2375  -15.1906  -2.3588
Ag   3.7395  -16.6351  -2.3588
Ag  -1.2645  -13.7461  -2.3588
Ag   2.0715  -16.6351  -4.7178
Ag   2.0715  -13.7461  -4.7178
Ag  -0.4305  -15.1906  -4.7178
Ag   5.4074  -16.6351   0.0000
Ag   7.9094  -15.1906   0.0000
Ag   5.4074  -13.7461   0.0000
Ag   6.2414  -15.1906  -2.3588
Ag   8.7434  -16.6351  -2.3588
Ag   3.7394  -13.7461  -2.3588
Ag   7.0754  -16.6351  -4.7178
Ag   7.0754  -13.7461  -4.7178
Ag   4.5734  -15.1906  -4.7178
Ag  10.4113  -16.6351   0.0000
Ag  12.9133  -15.1906   0.0000
Ag  10.4113  -13.7461   0.0000
Ag  11.2453  -15.1906  -2.3588
Ag  13.7473  -16.6351  -2.3588
Ag   8.7433  -13.7461  -2.3588
Ag  12.0793  -16.6351  -4.7178
Ag  12.0793  -13.7461  -4.7178
Ag   9.5773  -15.1906  -4.7178
Ag  15.4152  -16.6351   0.0000
Ag  17.9172  -15.1906   0.0000
Ag  15.4152  -13.7461   0.0000
Ag  16.2492  -15.1906  -2.3588
Ag  18.7512  -16.6351  -2.3588
Ag  13.7472  -13.7461  -2.3588
Ag  17.0832  -16.6351  -4.7178
Ag  17.0832  -13.7461  -4.7178
Ag  14.5812  -15.1906  -4.7178
Ag  20.4191  -16.6351   0.0000
Ag  22.9211  -15.1906   0.0000
Ag  20.4191  -13.7461   0.0000
Ag  21.2531  -15.1906  -2.3588
Ag  23.7551  -16.6351  -2.3588
Ag  18.7511  -13.7461  -2.3588
Ag  22.0871  -16.6351  -4.7178
Ag  22.0871  -13.7461  -4.7178
Ag  19.5851  -15.1906  -4.7178
Ag  25.4230  -16.6351   0.0000
Ag  27.9250  -15.1906   0.0000
Ag  25.4230  -13.7461   0.0000
Ag  26.2570  -15.1906  -2.3588
Ag  28.7590  -16.6351  -2.3588
Ag  23.7550  -13.7461  -2.3588
Ag  27.0910  -16.6351  -4.7178
Ag  27.0910  -13.7461  -4.7178
Ag  24.5890  -15.1906  -4.7178
Ag  30.4269  -16.6351   0.0000
Ag  32.9289  -15.1906   0.0000
Ag  30.4269  -13.7461   0.0000
Ag  31.2609  -15.1906  -2.3588
Ag  33.7629  -16.6351  -2.3588
Ag  28.7589  -13.7461  -2.3588
Ag  32.0949  -16.6351  -4.7178
Ag  32.0949  -13.7461  -4.7178
Ag  29.5929  -15.1906  -4.7178
Ag -17.1101  -12.3016   0.0000
Ag -14.6082  -10.8571   0.0000
Ag -17.1102   -9.4126   0.0000
Ag -16.2762  -10.8571  -2.3588
Ag -13.7742  -12.3016  -2.3588
Ag -18.7781   -9.4126  -2.3588
Ag -15.4422  -12.3016  -4.7178
Ag -15.4422   -9.4126  -4.7178
Ag -17.9441  -10.8571  -4.7178
Ag -12.1062  -12.3016   0.0000
Ag  -9.6043  -10.8571   0.0000
Ag -12.1063   -9.4126   0.0000
Ag -11.2723  -10.8571  -2.3588
Ag  -8.7703  -12.3016  -2.3588
Ag -13.7742   -9.4126  -2.3588
Ag -10.4383  -12.3016  -4.7178
Ag -10.4383   -9.4126  -4.7178
Ag -12.9402  -10.8571  -4.7178
Ag  -7.1023  -12.3016   0.0000
Ag  -4.6004  -10.8571   0.0000
Ag  -7.1024   -9.4126   0.0000
Ag  -6.2684  -10.8571  -2.3588
Ag  -3.7664  -12.3016  -2.3588
Ag  -8.7703   -9.4126  -2.3588
Ag  -5.4344  -12.3016  -4.7178
Ag  -5.4344   -9.4126  -4.7178
Ag  -7.9363  -10.8571  -4.7178
Ag  -2.0984  -12.3016   0.0000
Ag   0.4035  -10.8571   0.0000
Ag  -2.0985   -9.4126   0.0000
Ag  -1.2645  -10.8571  -2.3588
Ag   1.2375  -12.3016  -2.3588
Ag  -3.7664   -9.4126  -2.3588
Ag  -0.4305  -12.3016  -4.7178
Ag  -0.4305   -9.4126  -4.7178
Ag  -2.9324  -10.8571  -4.7178
Ag   2.9055  -12.3016   0.0000
Ag   5.4074  -10.8571   0.0000
Ag   2.9054   -9.4126   0.0000
Ag   3.7394  -10.8571  -2.3588
Ag   6.2414  -12.3016  -2.3588
Ag   1.2375   -9.4126  -2.3588
Ag   4.5734  -12.3016  -4.7178
Ag   4.5734   -9.4126  -4.7178
Ag   2.0715  -10.8571  -4.7178
Ag   7.9094  -12.3016   0.0000
Ag  10.4113  -10.8571   0.0000
Ag   7.9093   -9.4126   0.0000
Ag   8.7433  -10.8571  -2.3588
Ag  11.2453  -12.3016  -2.3588
Ag   6.2414   -9.4126  -2.3588
Ag   9.5773  -12.3016  -4.7178
Ag   9.5773   -9.4126  -4.7178
Ag   7.0754  -10.8571  -4.7178
Ag  12.9133  -12.3016   0.0000
Ag  15.4152  -10.8571   0.0000
Ag  12.9132   -9.4126   0.0000
Ag  13.7472  -10.8571  -2.3588
Ag  16.2492  -12.3016  -2.3588
Ag  11.2453   -9.4126  -2.3588
Ag  14.5812  -12.3016  -4.7178
Ag  14.5812   -9.4126  -4.7178
Ag  12.0793  -10.8571  -4.7178
Ag  17.9172  -12.3016   0.0000
Ag  20.4191  -10.8571   0.0000
Ag  17.9171   -9.4126   0.0000
Ag  18.7511  -10.8571  -2.3588
Ag  21.2531  -12.3016  -2.3588
Ag  16.2492   -9.4126  -2.3588
Ag  19.5851  -12.3016  -4.7178
Ag  19.5851   -9.4126  -4.7178
Ag  17.0832  -10.8571  -4.7178
Ag  22.9211  -12.3016   0.0000
Ag  25.4230  -10.8571   0.0000
Ag  22.9210   -9.4126   0.0000
Ag  23.7550  -10.8571  -2.3588
Ag  26.2570  -12.3016  -2.3588
Ag  21.2531   -9.4126  -2.3588
Ag  24.5890  -12.3016  -4.7178
Ag  24.5890   -9.4126  -4.7178
Ag  22.0871  -10.8571  -4.7178
Ag  27.9250  -12.3016   0.0000
Ag  30.4269  -10.8571   0.0000
Ag  27.9249   -9.4126   0.0000
Ag  28.7589  -10.8571  -2.3588
Ag  31.2609  -12.3016  -2.3588
Ag  26.2570   -9.4126  -2.3588
Ag  29.5929  -12.3016  -4.7178
Ag  29.5929   -9.4126  -4.7178
Ag  27.0910  -10.8571  -4.7178
Ag -19.6121   -7.9681   0.0000
Ag -17.1101   -6.5236   0.0000
Ag -19.6121   -5.0791   0.0000
Ag -18.7781   -6.5236  -2.3588
Ag -16.2761   -7.9681  -2.3588
Ag -21.2801   -5.0791  -2.3588
Ag -17.9441   -7.9681  -4.7178
Ag -17.9441   -5.0791  -4.7178
Ag -20.4461   -6.5236  -4.7178
Ag -14.6082   -7.9681   0.0000
Ag -12.1062   -6.5236   0.0000
Ag -14.6082   -5.0791   0.0000
Ag -13.7742   -6.5236  -2.3588
Ag -11.2722   -7.9681  -2.3588
Ag -16.2762   -5.0791  -2.3588
Ag -12.9402   -7.9681  -4.7178
Ag -12.9402   -5.0791  -4.7178
Ag -15.4422   -6.5236  -4.7178
Ag  -9.6043   -7.9681   0.0000
Ag  -7.1023   -6.5236   0.0000
Ag  -9.6043   -5.0791   0.0000
Ag  -8.7703   -6.5236  -2.3588
Ag  -6.2683   -7.9681  -2.3588
Ag -11.2723   -5.0791  -2.3588
Ag  -7.9363   -7.9681  -4.7178
Ag  -7.9363   -5.0791  -4.7178
Ag -10.4383   -6.5236  -4.7178
Ag  -4.6004   -7.9681   0.0000
Ag  -2.0984   -6.5236   0.0000
Ag  -4.6004   -5.0791   0.0000
Ag  -3.7664   -6.5236  -2.3588
Ag  -1.2644   -7.9681  -2.3588
Ag  -6.2684   -5.0791  -2.3588
Ag  -2.9324   -7.9681  -4.7178
Ag  -2.9324   -5.0791  -4.7178
Ag  -5.4344   -6.5236  -4.7178
Ag   0.4035   -7.9681   0.0000
Ag   2.9055   -6.5236   0.0000
Ag   0.4035   -5.0791   0.0000
Ag   1.2375   -6.5236  -2.3588
Ag   3.7395   -7.9681  -2.3588
Ag  -1.2645   -5.0791  -2.3588
Ag   2.0715   -7.9681  -4.7178
Ag   2.0715   -5.0791  -4.7178
Ag  -0.4305   -6.5236  -4.7178
Ag   5.4074   -7.9681   0.0000
Ag   7.9094   -6.5236   0.0000
Ag   5.4074   -5.0791   0.0000
Ag   6.2414   -6.5236  -2.3588
Ag   8.7434   -7.9681  -2.3588
Ag   3.7394   -5.0791  -2.3588
Ag   7.0754   -7.9681  -4.7178
Ag   7.0754   -5.0791  -4.7178
Ag   4.5734   -6.5236  -4.7178
Ag  10.4113   -7.9681   0.0000
Ag  12.9133   -6.5236   0.0000
Ag  10.4113   -5.0791   0.0000
Ag  11.2453   -6.5236  -2.3588
Ag  13.7473   -7.9681  -2.3588
Ag   8.7433   -5.0791  -2.3588
Ag  12.0793   -7.9681  -4.7178
Ag  12.0793   -5.0791  -4.7178
Ag   9.5773   -6.5236  -4.7178
Ag  15.4152   -7.9681   0.0000
Ag  17.9172   -6.5236   0.0000
Ag  15.4152   -5.0791   0.0000
Ag  16.2492   -6.5236  -2.3588
Ag  18.7512   -7.9681  -2.3588
Ag  13.7472   -5.0791  -2.3588
Ag  17.0832   -7.9681  -4.7178
Ag  17.0832   -5.0791  -4.7178
Ag  14.5812   -6.5236  -4.7178
Ag  20.4191   -7.9681   0.0000
Ag  22.9211   -6.5236   0.0000
Ag  20.4191   -5.0791   0.0000
Ag  21.2531   -6.5236  -2.3588
Ag  23.7551   -7.9681  -2.3588
Ag  18.7511   -5.0791  -2.3588
Ag  22.0871   -7.9681  -4.7178
Ag  22.0871   -5.0791  -4.7178
Ag  19.5851   -6.5236  -4.7178
Ag  25.4230   -7.9681   0.0000
Ag  27.9250   -6.5236   0.0000
Ag  25.4230   -5.0791   0.0000
Ag  26.2570   -6.5236  -2.3588
Ag  28.7590   -7.9681  -2.3588
Ag  23.7550   -5.0791  -2.3588
Ag  27.0910   -7.9681  -4.7178
Ag  27.0910   -5.0791  -4.7178
Ag  24.5890   -6.5236  -4.7178
Ag -22.1140   -3.6346   0.0000
Ag -19.6121   -2.1901   0.0000
Ag -22.1141   -0.7456   0.0000
Ag -21.2801   -2.1901  -2.3588
Ag -18.7781   -3.6346  -2.3588
Ag -23.7820   -0.7456  -2.3588
Ag -20.4461   -3.6346  -4.7178
Ag -20.4461   -0.7456  -4.7178
Ag -22.9480   -2.1901  -4.7178
Ag -17.1101   -3.6346   0.0000
Ag -14.6082   -2.1901   0.0000
Ag -17.1102   -0.7456   0.0000
Ag -16.2762   -2.1901  -2.3588
Ag -13.7742   -3.6346  -2.3588
Ag -18.7781   -0.7456  -2.3588
Ag -15.4422   -3.6346  -4.7178
Ag -15.4422   -0.7456  -4.7178
Ag -17.9441   -2.1901  -4.7178
Ag -12.1062   -3.6346   0.0000
Ag  -9.6043   -2.1901   0.0000
Ag -12.1063   -0.7456   0.0000
Ag -11.2723   -2.1901  -2.3588
Ag  -8.7703   -3.6346  -2.3588
Ag -13.7742   -0.7456  -2.3588
Ag -10.4383   -3.6346  -4.7178
Ag -10.4383   -0.7456  -4.7178
Ag -12.9402   -2.1901  -4.7178
Ag  -7.1023   -3.6346   0.0000
Ag  -4.6004   -2.1901   0.0000
Ag  -7.1024   -0.7456   0.0000
Ag  -6.2684   -2.1901  -2.3588
Ag  -3.7664   -3.6346  -2.3588
Ag  -8.7703   -0.7456  -2.3588
Ag  -5.4344   -3.6346  -4.7178
Ag  -5.4344   -0.7456  -4.7178
Ag  -7.9363   -2.1901  -4.7178
Ag  -2.0984   -3.6346   0.0000
Ag   0.4035   -2.1901   0.0000
Ag  -2.0985   -0.7456   0.0000
Ag  -1.2645   -2.1901  -2.3588
Ag   1.2375   -3.6346  -2.3588
Ag  -3.7664   -0.7456  -2.3588
Ag  -0.4305   -3.6346  -4.7178
Ag  -0.4305   -0.7456  -4.7178
Ag  -2.9324   -2.1901  -4.7178
Ag   2.9055   -3.6346   0.0000
Ag   5.4074   -2.1901   0.0000
Ag   2.9054   -0.7456   0.0000
Ag   3.7394   -2.1901  -2.3588
Ag   6.2414   -3.6346  -2.3588
Ag   1.2375   -0.7456  -2.3588
Ag   4.5734   -3.6346  -4.7178
Ag   4.5734   -0.7456  -4.7178
Ag   2.0715   -2.1901  -4.7178
Ag   7.9094   -3.6346   0.0000
Ag  10.4113   -2.1901   0.0000
Ag   7.9093   -0.7456   0.0000
Ag   8.7433   -2.1901  -2.3588
Ag  11.2453   -3.6346  -2.3588
Ag   6.2414   -0.7456  -2.3588
Ag   9.5773   -3.6346  -4.7178
Ag   9.5773   -0.7456  -4.7178
Ag   7.0754   -2.1901  -4.7178
Ag  12.9133   -3.6346   0.0000
Ag  15.4152   -2.1901   0.0000
Ag  12.9132   -0.7456   0.0000
Ag  13.7472   -2.1901  -2.3588
Ag  16.2492   -3.6346  -2.3588
Ag  11.2453   -0.7456  -2.3588
Ag  14.5812   -3.6346  -4.7178
Ag  14.5812   -0.7456  -4.7178
Ag  12.0793   -2.1901  -4.7178
Ag  17.9172   -3.6346   0.0000
Ag  20.4191   -2.1901   0.0000
Ag  17.9171   -0.7456   0.0000
Ag  18.7511   -2.1901  -2.3588
Ag  21.2531   -3.6346  -2.3588
Ag  16.2492   -0.7456  -2.3588
Ag  19.5851   -3.6346  -4.7178
Ag  19.5851   -0.7456  -4.7178
Ag  17.0832   -2.1901  -4.7178
Ag  22.9211   -3.6346   0.0000
Ag  25.4230   -2.1901   0.0000
Ag  22.9210   -0.7456   0.0000
Ag  23.7550   -2.1901  -2.3588
Ag  26.2570   -3.6346  -2.3588
Ag  21.2531   -0.7456  -2.3588
Ag  24.5890   -3.6346  -4.7178
Ag  24.5890   -0.7456  -4.7178
Ag  22.0871   -2.1901  -4.7178
Ag -24.6160    0.6989   0.0000
Ag -22.1140    2.1434   0.0000
Ag -24.6160    3.5879   0.0000
Ag -23.7820    2.1434  -2.3588
Ag -21.2800    0.6989  -2.3588
Ag -26.2840    3.5879  -2.3588
Ag -22.9480    0.6989  -4.7178
Ag -22.9480    3.5879  -4.7178
Ag -25.4500    2.1434  -4.7178
Ag -19.6121    0.6989   0.0000
Ag -17.1101    2.1434   0.0000
Ag -19.6121    3.5879   0.0000
Ag -18.7781    2.1434  -2.3588
Ag -16.2761    0.6989  -2.3588
Ag -21.2801    3.5879  -2.3588
Ag -17.9441    0.6989  -4.7178
Ag -17.9441    3.5879  -4.7178
Ag -20.4461    2.1434  -4.7178
Ag -14.6082    0.6989   0.0000
Ag -12.1062    2.1434   0.0000
Ag -14.6082    3.5879   0.0000
Ag -13.7742    2.1434  -2.3588
Ag -11.2722    0.6989  -2.3588
Ag -16.2762    3.5879  -2.3588
Ag -12.9402    0.6989  -4.7178
Ag -12.9402    3.5879  -4.7178
Ag -15.4422    2.1434  -4.7178
Ag  -9.6043    0.6989   0.0000
Ag  -7.1023    2.1434   0.0000
Ag  -9.6043    3.5879   0.0000
Ag  -8.7703    2.1434  -2.3588
Ag  -6.2683    0.6989  -2.3588
Ag -11.2723    3.5879  -2.3588
Ag  -7.9363    0.6989  -4.7178
Ag  -7.9363    3.5879  -4.7178
Ag -10.4383    2.1434  -4.7178
Ag  -4.6004    0.6989   0.0000
Ag  -2.0984    2.1434   0.0000
Ag  -4.6004    3.5879   0.0000
Ag  -3.7664    2.1434  -2.3588
Ag  -1.2644    0.6989  -2.3588
Ag  -6.2684    3.5879  -2.3588
Ag  -2.9324    0.6989  -4.7178
Ag  -2.9324    3.5879  -4.7178
Ag  -5.4344    2.1434  -4.7178
Ag   0.4035    0.6989   0.0000
Ag   2.9055    2.1434   0.0000
Ag   0.4035    3.5879   0.0000
Ag   1.2375    2.1434  -2.3588
Ag   3.7395    0.6989  -2.3588
Ag  -1.2645    3.5879  -2.3588
Ag   2.0715    0.6989  -4.7178
Ag   2.0715    3.5879  -4.7178
Ag  -0.4305    2.1434  -4.7178
Ag   5.4074    0.6989   0.0000
Ag   7.9094    2.1434   0.0000
Ag   5.4074    3.5879   0.0000
Ag   6.2414    2.1434  -2.3588
Ag   8.7434    0.6989  -2.3588
Ag   3.7394    3.5879  -2.3588
Ag   7.0754    0.6989  -4.7178
Ag   7.0754    3.5879  -4.7178
Ag   4.5734    2.1434  -4.7178
Ag  10.4113    0.6989   0.0000
Ag  12.9133    2.1434   0.0000
Ag  10.4113    3.5879   0.0000
Ag  11.2453    2.1434  -2.3588
Ag  13.7473    0.6989  -2.3588
Ag   8.7433    3.5879  -2.3588
Ag  12.0793    0.6989  -4.7178
Ag  12.0793    3.5879  -4.7178
Ag   9.5773    2.1434  -4.7178
Ag  15.4152    0.6989   0.0000
Ag  17.9172    2.1434   0.0000
Ag  15.4152    3.5879   0.0000
Ag  16.2492    2.1434  -2.3588
Ag  18.7512    0.6989  -2.3588
Ag  13.7472    3.5879  -2.3588
Ag  17.0832    0.6989  -4.7178
Ag  17.0832    3.5879  -4.7178
Ag  14.5812    2.1434  -4.7178
Ag  20.4191    0.6989   0.0000
Ag  22.9211    2.1434   0.0000
Ag  20.4191    3.5879   0.0000
Ag  21.2531    2.1434  -2.3588
Ag  23.7551    0.6989  -2.3588
Ag  18.7511    3.5879  -2.3588
Ag  22.0871    0.6989  -4.7178
Ag  22.0871    3.5879  -4.7178
Ag  19.5851    2.1434  -4.7178
Ag -27.1179    5.0324   0.0000
Ag -24.6160    6.4769   0.0000
Ag -27.1180    7.9215   0.0000
Ag -26.2840    6.4769  -2.3588
Ag -23.7820    5.0324  -2.3588
Ag -28.7859    7.9215  -2.3588
Ag -25.4500    5.0324  -4.7178
Ag -25.4500    7.9215  -4.7178
Ag -27.9519    6.4769  -4.7178
Ag -22.1140    5.0324   0.0000
Ag -19.6121    6.4769   0.0000
Ag -22.1141    7.9215   0.0000
Ag -21.2801    6.4769  -2.3588
Ag -18.7781    5.0324  -2.3588
Ag -23.7820    7.9215  -2.3588
Ag -20.4461    5.0324  -4.7178
Ag -20.4461    7.9215  -4.7178
Ag -22.9480    6.4769  -4.7178
Ag -17.1101    5.0324   0.0000
Ag -14.6082    6.4769   0.0000
Ag -17.1102    7.9215   0.0000
Ag -16.2762    6.4769  -2.3588
Ag -13.7742    5.0324  -2.3588
Ag -18.7781    7.9215  -2.3588
Ag -15.4422    5.0324  -4.7178
Ag -15.4422    7.9215  -4.7178
Ag -17.9441    6.4769  -4.7178
Ag -12.1062    5.0324   0.0000
Ag  -9.6043    6.4769   0.0000
Ag -12.1063    7.9215   0.0000
Ag -11.2723    6.4769  -2.3588
Ag  -8.7703    5.0324  -2.3588
Ag -13.7742    7.9215  -2.3588
Ag -10.4383    5.0324  -4.7178
Ag -10.4383    7.9215  -4.7178
Ag -12.9402    6.4769  -4.7178
Ag  -7.1023    5.0324   0.0000
Ag  -4.6004    6.4769   0.0000
Ag  -7.1024    7.9215   0.0000
Ag  -6.2684    6.4769  -2.3588
Ag  -3.7664    5.0324  -2.3588
Ag  -8.7703    7.9215  -2.3588
Ag  -5.4344    5.0324  -4.7178
Ag  -5.4344    7.9215  -4.7178
Ag  -7.9363    6.4769  -4.7178
Ag  -2.0984    5.0324   0.0000
Ag   0.4035    6.4769   0.0000
Ag  -2.0985    7.9215   0.0000
Ag  -1.2645    6.4769  -2.3588
Ag   1.2375    5.0324  -2.3588
Ag  -3.7664    7.9215  -2.3588
Ag  -0.4305    5.0324  -4.7178
Ag  -0.4305    7.9215  -4.7178
Ag  -2.9324    6.4769  -4.7178
Ag   2.9055    5.0324   0.0000
Ag   5.4074    6.4769   0.0000
Ag   2.9054    7.9215   0.0000
Ag   3.7394    6.4769  -2.3588
Ag   6.2414    5.0324  -2.3588
Ag   1.2375    7.9215  -2.3588
Ag   4.5734    5.0324  -4.7178
Ag   4.5734    7.9215  -4.7178
Ag   2.0715    6.4769  -4.7178
Ag   7.9094    5.0324   0.0000
Ag  10.4113    6.4769   0.0000
Ag   7.9093    7.9215   0.0000
Ag   8.7433    6.4769  -2.3588
Ag  11.2453    5.0324  -2.3588
Ag   6.2414    7.9215  -2.3588
Ag   9.5773    5.0324  -4.7178
Ag   9.5773    7.9215  -4.7178
Ag   7.0754    6.4769  -4.7178
Ag  12.9133    5.0324   0.0000
Ag  15.4152    6.4769   0.0000
Ag  12.9132    7.9215   0.0000
Ag  13.7472    6.4769  -2.3588
Ag  16.2492    5.0324  -2.3588
Ag  11.2453    7.9215  -2.3588
Ag  14.5812    5.0324  -4.7178
Ag  14.5812    7.9215  -4.7178
Ag  12.0793    6.4769  -4.7178
Ag  17.9172    5.0324   0.0000
Ag  20.4191    6.4769   0.0000
Ag  17.9171    7.9215   0.0000
Ag  18.7511    6.4769  -2.3588
Ag  21.2531    5.0324  -2.3588
Ag  16.2492    7.9215  -2.3588
Ag  19.5851    5.0324  -4.7178
Ag  19.5851    7.9215  -4.7178
Ag  17.0832    6.4769  -4.7178
Ag -29.6199    9.3659   0.0000
Ag -27.1179   10.8104   0.0000
Ag -29.6199   12.2550   0.0000
Ag -28.7859   10.8104  -2.3588
Ag -26.2839    9.3659  -2.3588
Ag -31.2879   12.2550  -2.3588
Ag -27.9519    9.3659  -4.7178
Ag -27.9519   12.2550  -4.7178
Ag -30.4539   10.8104  -4.7178
Ag -24.6160    9.3659   0.0000
Ag -22.1140   10.8104   0.0000
Ag -24.6160   12.2550   0.0000
Ag -23.7820   10.8104  -2.3588
Ag -21.2800    9.3659  -2.3588
Ag -26.2840   12.2550  -2.3588
Ag -22.9480    9.3659  -4.7178
Ag -22.9480   12.2550  -4.7178
Ag -25.4500   10.8104  -4.7178
Ag -19.6121    9.3659   0.0000
Ag -17.1101   10.8104   0.0000
Ag -19.6121   12.2550   0.0000
Ag -18.7781   10.8104  -2.3588
Ag -16.2761    9.3659  -2.3588
Ag -21.2801   12.2550  -2.3588
Ag -17.9441    9.3659  -4.7178
Ag -17.9441   12.2550  -4.7178
Ag -20.4461   10.8104  -4.7178
Ag -14.6082    9.3659   0.0000
Ag -12.1062   10.8104   0.0000
Ag -14.6082   12.2550   0.0000
Ag -13.7742   10.8104  -2.3588
Ag -11.2722    9.3659  -2.3588
Ag -16.2762   12.2550  -2.3588
Ag -12.9402    9.3659  -4.7178
Ag -12.9402   12.2550  -4.7178
Ag -15.4422   10.8104  -4.7178
Ag  -9.6043    9.3659   0.0000
Ag  -7.1023   10.8104   0.0000
Ag  -9.6043   12.2550   0.0000
Ag  -8.7703   10.8104  -2.3588
Ag  -6.2683    9.3659  -2.3588
Ag -11.2723   12.2550  -2.3588
Ag  -7.9363    9.3659  -4.7178
Ag  -7.9363   12.2550  -4.7178
Ag -10.4383   10.8104  -4.7178
Ag  -4.6004    9.3659   0.0000
Ag  -2.0984   10.8104   0.0000
Ag  -4.6004   12.2550   0.0000
Ag  -3.7664   10.8104  -2.3588
Ag  -1.2644    9.3659  -2.3588
Ag  -6.2684   12.2550  -2.3588
Ag  -2.9324    9.3659  -4.7178
Ag  -2.9324   12.2550  -4.7178
Ag  -5.4344   10.8104  -4.7178
Ag   0.4035    9.3659   0.0000
Ag   2.9055   10.8104   0.0000
Ag   0.4035   12.2550   0.0000
Ag   1.2375   10.8104  -2.3588
Ag   3.7395    9.3659  -2.3588
Ag  -1.2645   12.2550  -2.3588
Ag   2.0715    9.3659  -4.7178
Ag   2.0715   12.2550  -4.7178
Ag  -0.4305   10.8104  -4.7178
Ag   5.4074    9.3659   0.0000
Ag   7.9094   10.8104   0.0000
Ag   5.4074   12.2550   0.0000
Ag   6.2414   10.8104  -2.3588
Ag   8.7434    9.3659  -2.3588
Ag   3.7394   12.2550  -2.3588
Ag   7.0754    9.3659  -4.7178
Ag   7.0754   12.2550  -4.7178
Ag   4.5734   10.8104  -4.7178
Ag  10.4113    9.3659   0.0000
Ag  12.9133   10.8104   0.0000
Ag  10.4113   12.2550   0.0000
Ag  11.2453   10.8104  -2.3588
Ag  13.7473    9.3659  -2.3588
Ag   8.7433   12.2550  -2.3588
Ag  12.0793    9.3659  -4.7178
Ag  12.0793   12.2550  -4.7178
Ag   9.5773   10.8104  -4.7178
Ag  15.4152    9.3659   0.0000
Ag  17.9172   10.8104   0.0000
Ag  15.4152   12.2550   0.0000
Ag  16.2492   10.8104  -2.3588
Ag  18.7512    9.3659  -2.3588
Ag  13.7472   12.2550  -2.3588
Ag  17.0832    9.3659  -4.7178
Ag  17.0832   12.2550  -4.7178
Ag  14.5812   10.8104  -4.7178
Ag -32.1218   13.6994   0.0000
Ag -29.6199   15.1439   0.0000
Ag -32.1219   16.5885   0.0000
Ag -31.2879   15.1439  -2.3588
Ag -28.7859   13.6994  -2.3588
Ag -33.7898   16.5885  -2.3588
Ag -30.4539   13.6994  -4.7178
Ag -30.4539   16.5885  -4.7178
Ag -32.9558   15.1439  -4.7178
Ag -27.1179   13.6994   0.0000
Ag -24.6160   15.1439   0.0000
Ag -27.1180   16.5885   0.0000
Ag -26.2840   15.1439  -2.3588
Ag -23.7820   13.6994  -2.3588
Ag -28.7859   16.5885  -2.3588
Ag -25.4500   13.6994  -4.7178
Ag -25.4500   16.5885  -4.7178
Ag -27.9519   15.1439  -4.7178
Ag -22.1140   13.6994   0.0000
Ag -19.6121   15.1439   0.0000
Ag -22.1141   16.5885   0.0000
Ag -21.2801   15.1439  -2.3588
Ag -18.7781   13.6994  -2.3588
Ag -23.7820   16.5885  -2.3588
Ag -20.4461   13.6994  -4.7178
Ag -20.4461   16.5885  -4.7178
Ag -22.9480   15.1439  -4.7178
Ag -17.1101   13.6994   0.0000
Ag -14.6082   15.1439   0.0000
Ag -17.1102   16.5885   0.0000
Ag -16.2762   15.1439  -2.3588
Ag -13.7742   13.6994  -2.3588
Ag -18.7781   16.5885  -2.3588
Ag -15.4422   13.6994  -4.7178
Ag -15.4422   16.5885  -4.7178
Ag -17.9441   15.1439  -4.7178
Ag -12.1062   13.6994   0.0000
Ag  -9.6043   15.1439   0.0000
Ag -12.1063   16.5885   0.0000
Ag -11.2723   15.1439  -2.3588
Ag  -8.7703   13.6994  -2.3588
Ag -13.7742   16.5885  -2.3588
Ag -10.4383   13.6994  -4.7178
Ag -10.4383   16.5885  -4.7178
Ag -12.9402   15.1439  -4.7178
Ag  -7.1023   13.6994   0.0000
Ag  -4.6004   15.1439   0.0000
Ag  -7.1024   16.5885   0.0000
Ag  -6.2684   15.1439  -2.3588
Ag  -3.7664   13.6994  -2.3588
Ag  -8.7703   16.5885  -2.3588
Ag  -5.4344   13.6994  -4.7178
Ag  -5.4344   16.5885  -4.7178
Ag  -7.9363   15.1439  -4.7178
Ag  -2.0984   13.6994   0.0000
Ag   0.4035   15.1439   0.0000
Ag  -2.0985   16.5885   0.0000
Ag  -1.2645   15.1439  -2.3588
Ag   1.2375   13.6994  -2.3588
Ag  -3.7664   16.5885  -2.3588
Ag  -0.4305   13.6994  -4.7178
Ag  -0.4305   16.5885  -4.7178
Ag  -2.9324   15.1439  -4.7178
Ag   2.9055   13.6994   0.0000
Ag   5.4074   15.1439   0.0000
Ag   2.9054   16.5885   0.0000
Ag   3.7394   15.1439  -2.3588
Ag   6.2414   13.6994  -2.3588
Ag   1.2375   16.5885  -2.3588
Ag   4.5734   13.6994  -4.7178
Ag   4.5734   16.5885  -4.7178
Ag   2.0715   15.1439  -4.7178
Ag   7.9094   13.6994   0.0000
Ag  10.4113   15.1439   0.0000
Ag   7.9093   16.5885   0.0000
Ag   8.7433   15.1439  -2.3588
Ag  11.2453   13.6994  -2.3588
Ag   6.2414   16.5885  -2.3588
Ag   9.5773   13.6994  -4.7178
Ag   9.5773   16.5885  -4.7178
Ag   7.0754   15.1439  -4.7178
Ag  12.9133   13.6994   0.0000
Ag  15.4152   15.1439   0.0000
Ag  12.9132   16.5885   0.0000
Ag  13.7472   15.1439  -2.3588
Ag  16.2492   13.6994  -2.3588
Ag  11.2453   16.5885  -2.3588
Ag  14.5812   13.6994  -4.7178
Ag  14.5812   16.5885  -4.7178
Ag  12.0793   15.1439  -4.7178
Ag -34.6238   18.0330   0.0000
Ag -32.1218   19.4774   0.0000
Ag -34.6238   20.9220   0.0000
Ag -33.7898   19.4774  -2.3588
Ag -31.2878   18.0330  -2.3588
Ag -36.2918   20.9220  -2.3588
Ag -32.9558   18.0330  -4.7178
Ag -32.9558   20.9220  -4.7178
Ag -35.4578   19.4774  -4.7178
Ag -29.6199   18.0330   0.0000
Ag -27.1179   19.4774   0.0000
Ag -29.6199   20.9220   0.0000
Ag -28.7859   19.4774  -2.3588
Ag -26.2839   18.0330  -2.3588
Ag -31.2879   20.9220  -2.3588
Ag -27.9519   18.0330  -4.7178
Ag -27.9519   20.9220  -4.7178
Ag -30.4539   19.4774  -4.7178
Ag -24.6160   18.0330   0.0000
Ag -22.1140   19.4774   0.0000
Ag -24.6160   20.9220   0.0000
Ag -23.7820   19.4774  -2.3588
Ag -21.2800   18.0330  -2.3588
Ag -26.2840   20.9220  -2.3588
Ag -22.9480   18.0330  -4.7178
Ag -22.9480   20.9220  -4.7178
Ag -25.4500   19.4774  -4.7178
Ag -19.6121   18.0330   0.0000
Ag -17.1101   19.4774   0.0000
Ag -19.6121   20.9220   0.0000
Ag -18.7781   19.4774  -2.3588
Ag -16.2761   18.0330  -2.3588
Ag -21.2801   20.9220  -2.3588
Ag -17.9441   18.0330  -4.7178
Ag -17.9441   20.9220  -4.7178
Ag -20.4461   19.4774  -4.7178
Ag -14.6082   18.0330   0.0000
Ag -12.1062   19.4774   0.0000
Ag -14.6082   20.9220   0.0000
Ag -13.7742   19.4774  -2.3588
Ag -11.2722   18.0330  -2.3588
Ag -16.2762   20.9220  -2.3588
Ag -12.9402   18.0330  -4.7178
Ag -12.9402   20.9220  -4.7178
Ag -15.4422   19.4774  -4.7178
Ag  -9.6043   18.0330   0.0000
Ag  -7.1023   19.4774   0.0000
Ag  -9.6043   20.9220   0.0000
Ag  -8.7703   19.4774  -2.3588
Ag  -6.2683   18.0330  -2.3588
Ag -11.2723   20.9220  -2.3588
Ag  -7.9363   18.0330  -4.7178
Ag  -7.9363   20.9220  -4.7178
Ag -10.4383   19.4774  -4.7178
Ag  -4.6004   18.0330   0.0000
Ag  -2.0984   19.4774   0.0000
Ag  -4.6004   20.9220   0.0000
Ag  -3.7664   19.4774  -2.3588
Ag  -1.2644   18.0330  -2.3588
Ag  -6.2684   20.9220  -2.3588
Ag  -2.9324   18.0330  -4.7178
Ag  -2.9324   20.9220  -4.7178
Ag  -5.4344   19.4774  -4.7178
Ag   0.4035   18.0330   0.0000
Ag   2.9055   19.4774   0.0000
Ag   0.4035   20.9220   0.0000
Ag   1.2375   19.4774  -2.3588
Ag   3.7395   18.0330  -2.3588
Ag  -1.2645   20.9220  -2.3588
Ag   2.0715   18.0330  -4.7178
Ag   2.0715   20.9220  -4.7178
Ag  -0.4305   19.4774  -4.7178
Ag   5.4074   18.0330   0.0000
Ag   7.9094   19.4774   0.0000
Ag   5.4074   20.9220   0.0000
Ag   6.2414   19.4774  -2.3588
Ag   8.7434   18.0330  -2.3588
Ag   3.7394   20.9220  -2.3588
Ag   7.0754   18.0330  -4.7178
Ag   7.0754   20.9220  -4.7178
Ag   4.5734   19.4774  -4.7178
Ag  10.4113   18.0330   0.0000
Ag  12.9133   19.4774   0.0000
Ag  10.4113   20.9220   0.0000
Ag  11.2453   19.4774  -2.3588
Ag  13.7473   18.0330  -2.3588
Ag   8.7433   20.9220  -2.3588
Ag  12.0793   18.0330  -4.7178
Ag  12.0793   20.9220  -4.7178
Ag   9.5773   19.4774  -4.7178
